*****
 OpenBabel11301504343D

 33 34  0  0  0  0  0  0  0  0999 V2000
   -3.7321    1.6831    0.1652 C   0  0  0  0  0  0  0  0  0  0  0  0
   -4.8383    0.8677    0.0466 C   0  0  0  0  0  0  0  0  0  0  0  0
   -4.6321   -0.5180   -0.0320 C   0  0  0  0  0  0  0  0  0  0  0  0
   -3.3152   -1.1049   -0.0824 C   0  0  0  0  0  0  0  0  0  0  0  0
   -2.1403   -0.3088   -0.0844 C   0  0  0  0  0  0  0  0  0  0  0  0
   -2.4429    1.0742    0.1097 C   0  0  0  0  0  0  0  0  0  0  0  0
   -0.7616   -0.8837   -0.1912 N   0  0  0  0  0  0  0  0  0  0  0  0
    0.6704   -0.4416   -0.2630 C   0  0  0  0  0  0  0  0  0  0  0  0
    2.3649    1.4570   -0.1418 C   0  0  0  0  0  0  0  0  0  0  0  0
    1.1012    0.9065   -0.4376 C   0  0  0  0  0  0  0  0  0  0  0  0
    1.7963   -1.2852   -0.0514 C   0  0  0  0  0  0  0  0  0  0  0  0
    3.1378   -0.7485    0.0461 C   0  0  0  0  0  0  0  0  0  0  0  0
    3.4154    0.6134    0.0602 C   0  0  0  0  0  0  0  0  0  0  0  0
   -1.3551    2.0278    0.3155 C   0  0  0  0  0  0  0  0  0  0  0  0
   -3.8358    3.1931    0.3025 C   0  0  0  0  0  0  0  0  0  0  0  0
    1.7190   -2.7718   -0.0716 C   0  0  0  0  0  0  0  0  0  0  0  0
    0.8730   -3.4364   -0.6036 O   0  0  0  0  0  0  0  0  0  0  0  0
    2.7872   -3.3297    0.5573 O   0  0  0  0  0  0  0  0  0  0  0  0
   -5.8402    1.2962    0.0444 H   0  0  0  0  0  0  0  0  0  0  0  0
   -5.5229   -1.1499   -0.0539 H   0  0  0  0  0  0  0  0  0  0  0  0
   -3.2835   -2.1939   -0.1080 H   0  0  0  0  0  0  0  0  0  0  0  0
   -0.8141   -1.8954   -0.3571 H   0  0  0  0  0  0  0  0  0  0  0  0
    2.5002    2.5390   -0.1433 H   0  0  0  0  0  0  0  0  0  0  0  0
    0.4685    1.6738   -0.8496 H   0  0  0  0  0  0  0  0  0  0  0  0
    4.0020   -1.4097    0.0966 H   0  0  0  0  0  0  0  0  0  0  0  0
    4.4236    1.0098    0.1491 H   0  0  0  0  0  0  0  0  0  0  0  0
   -0.5987    1.3471    0.5824 H   0  0  0  0  0  0  0  0  0  0  0  0
   -1.3279    2.5997    1.2347 H   0  0  0  0  0  0  0  0  0  0  0  0
   -1.2228    2.6241   -0.5949 H   0  0  0  0  0  0  0  0  0  0  0  0
   -3.0053    3.6109    0.8844 H   0  0  0  0  0  0  0  0  0  0  0  0
   -3.7949    3.6756   -0.6801 H   0  0  0  0  0  0  0  0  0  0  0  0
   -4.7246    3.5120    0.8486 H   0  0  0  0  0  0  0  0  0  0  0  0
    2.6955   -4.2967    0.4441 H   0  0  0  0  0  0  0  0  0  0  0  0
  1  2  2  0  0  0  0
  1  6  1  0  0  0  0
  1 15  1  0  0  0  0
  2  3  1  0  0  0  0
  2 19  1  0  0  0  0
  3  4  2  0  0  0  0
  3 20  1  0  0  0  0
  4  5  1  0  0  0  0
  4 21  1  0  0  0  0
  5  6  2  0  0  0  0
  5  7  1  0  0  0  0
  6 14  1  0  0  0  0
  7  8  1  0  0  0  0
  7 22  1  0  0  0  0
  8 11  2  0  0  0  0
  9 10  2  0  0  0  0
  9 13  1  0  0  0  0
  9 23  1  0  0  0  0
 10  8  1  0  0  0  0
 10 24  1  0  0  0  0
 11 12  1  0  0  0  0
 11 16  1  0  0  0  0
 12 13  2  0  0  0  0
 12 25  1  0  0  0  0
 13 26  1  0  0  0  0
 14 27  1  0  0  0  0
 14 28  1  0  0  0  0
 14 29  1  0  0  0  0
 15 30  1  0  0  0  0
 15 31  1  0  0  0  0
 15 32  1  0  0  0  0
 16 17  2  0  0  0  0
 16 18  1  0  0  0  0
 18 33  1  0  0  0  0
M  END
