NONAME
 OpenBabel11301504343D

 20 20  0  0  0  0  0  0  0  0999 V2000
    1.7172   -2.8603   -0.2565 C   0  0  0  0  0  0  0  0  0  0  0  0
    0.4497   -3.4288   -0.4197 C   0  0  0  0  0  0  0  0  0  0  0  0
    0.3259   -4.8109   -0.4801 C   0  0  0  0  0  0  0  0  0  0  0  0
    1.4457   -5.6253   -0.3805 C   0  0  0  0  0  0  0  0  0  0  0  0
    2.7124   -5.0547   -0.2175 C   0  0  0  0  0  0  0  0  0  0  0  0
    2.8599   -3.6676   -0.1542 C   0  0  0  0  0  0  0  0  0  0  0  0
    4.0973   -3.0116    0.0120 N   0  0  0  0  0  0  0  0  0  0  0  0
    5.3492   -3.5898    0.1223 C   0  0  0  0  0  0  0  0  0  0  0  0
    6.4397   -2.5611    0.2935 C   0  0  0  0  0  0  0  0  0  0  0  0
    5.6207   -4.7835    0.0654 O   0  0  0  0  0  0  0  0  0  0  0  0
   -0.8870   -5.4115   -0.6372 O   0  0  0  0  0  0  0  0  0  0  0  0
    1.7963   -1.7773   -0.2108 H   0  0  0  0  0  0  0  0  0  0  0  0
   -0.4181   -2.7818   -0.4964 H   0  0  0  0  0  0  0  0  0  0  0  0
    1.3402   -6.7057   -0.4284 H   0  0  0  0  0  0  0  0  0  0  0  0
    3.5622   -5.7256   -0.1420 H   0  0  0  0  0  0  0  0  0  0  0  0
    4.0599   -2.0012    0.0462 H   0  0  0  0  0  0  0  0  0  0  0  0
    7.2906   -3.0171    0.8079 H   0  0  0  0  0  0  0  0  0  0  0  0
    6.7572   -2.2041   -0.6896 H   0  0  0  0  0  0  0  0  0  0  0  0
    6.0933   -1.7170    0.8969 H   0  0  0  0  0  0  0  0  0  0  0  0
   -1.5713   -4.7250   -0.6911 H   0  0  0  0  0  0  0  0  0  0  0  0
  1  2  2  0  0  0  0
  1  6  1  0  0  0  0
  1 12  1  0  0  0  0
  2  3  1  0  0  0  0
  2 13  1  0  0  0  0
  3  4  2  0  0  0  0
  3 11  1  0  0  0  0
  4  5  1  0  0  0  0
  4 14  1  0  0  0  0
  5  6  2  0  0  0  0
  5 15  1  0  0  0  0
  6  7  1  0  0  0  0
  7  8  1  0  0  0  0
  7 16  1  0  0  0  0
  8  9  1  0  0  0  0
  8 10  2  0  0  0  0
  9 17  1  0  0  0  0
  9 18  1  0  0  0  0
  9 19  1  0  0  0  0
 11 20  1  0  0  0  0
M  END
